*SPEF "ieee 1481-1999"
*DESIGN "cpu_axi_top"
*DATE "04:29:23 Sunday June 28, 2026"
*VENDOR "The OpenROAD Project"
*PROGRAM "OpenROAD"
*VERSION "b16bda7e82721d10566ff7e2b68f1ff0be9f9e38"
*DESIGN_FLOW "NAME_SCOPE LOCAL" "PIN_CAP NONE"
*DIVIDER /
*DELIMITER :
*BUS_DELIMITER []
*T_UNIT 1 NS
*C_UNIT 1 PF
*R_UNIT 1 OHM
*L_UNIT 1 HENRY

*NAME_MAP
*3 clk
*4 net133
*5 net143
*6 net144
*7 net145
*8 net146
*9 net147
*10 net148
*11 net149
*12 net150
*13 net151
*14 net152
*15 net134
*16 net153
*17 net154
*18 net155
*19 net156
*20 net157
*21 net158
*22 net159
*23 net160
*24 net161
*25 net162
*26 net135
*27 net163
*28 net164
*29 net136
*30 net137
*31 net138
*32 net139
*33 net140
*34 net141
*35 net142
*36 net165
*37 net45
*38 net46
*39 net47
*40 net48
*41 net49
*42 net50
*43 net51
*44 net52
*45 net53
*46 net54
*47 net166
*48 net55
*49 net56
*50 net57
*51 net58
*52 net59
*53 net60
*54 net61
*55 net62
*56 net63
*57 net64
*58 net38
*59 net65
*60 net66
*61 net39
*62 net167
*63 net40
*64 net41
*65 net42
*66 net43
*67 net44
*68 net67
*69 net77
*70 net78
*71 net79
*72 net80
*73 net81
*74 net82
*75 net83
*76 net84
*77 net85
*78 net86
*79 net68
*80 net87
*81 net88
*82 net89
*83 net90
*84 net91
*85 net92
*86 net93
*87 net94
*88 net95
*89 net96
*90 net69
*91 net97
*92 net98
*93 net70
*94 net71
*95 net72
*96 net73
*97 net74
*98 net75
*99 net76
*100 net99
*101 debug_pc[10]
*102 debug_pc[11]
*103 debug_pc[12]
*104 debug_pc[13]
*105 debug_pc[14]
*106 debug_pc[15]
*107 debug_pc[16]
*108 debug_pc[17]
*109 debug_pc[18]
*110 debug_pc[19]
*111 net100
*112 debug_pc[20]
*113 debug_pc[21]
*114 debug_pc[22]
*115 debug_pc[23]
*116 debug_pc[24]
*117 debug_pc[25]
*118 debug_pc[26]
*119 debug_pc[27]
*120 debug_pc[28]
*121 debug_pc[29]
*122 debug_pc[2]
*123 debug_pc[30]
*124 debug_pc[31]
*125 debug_pc[3]
*126 debug_pc[4]
*127 debug_pc[5]
*128 debug_pc[6]
*129 debug_pc[7]
*130 debug_pc[8]
*131 debug_pc[9]
*132 net101
*133 net111
*134 net112
*135 net113
*136 net114
*137 net115
*138 net116
*139 net117
*140 net118
*141 net119
*142 net120
*143 net102
*144 net121
*145 net122
*146 net123
*147 net124
*148 net125
*149 net126
*150 net127
*151 net128
*152 net129
*153 net130
*154 net103
*155 net131
*156 net132
*157 net104
*158 net105
*159 net106
*160 net107
*161 net108
*162 net109
*163 net110
*164 reset
*165 _000_
*166 _001_
*167 _002_
*168 _003_
*169 _004_
*170 _005_
*171 _006_
*172 _007_
*173 _008_
*174 _009_
*175 _010_
*176 _011_
*177 _012_
*178 _013_
*179 _014_
*180 _015_
*181 _016_
*182 _017_
*183 _018_
*184 _019_
*185 _020_
*186 _021_
*187 _022_
*188 _023_
*189 _024_
*190 _025_
*191 _026_
*192 _027_
*193 _028_
*194 _029_
*195 _030_
*196 _031_
*197 _032_
*198 _033_
*199 _034_
*200 _035_
*201 _036_
*202 _037_
*203 _038_
*204 _039_
*205 _040_
*206 _041_
*207 _042_
*208 _043_
*209 _044_
*210 _045_
*211 _046_
*212 _047_
*213 _048_
*214 _049_
*215 _050_
*216 _051_
*217 _052_
*218 _053_
*219 _054_
*220 _055_
*221 _056_
*222 _057_
*223 _058_
*224 _059_
*225 _060_
*226 _061_
*227 _062_
*228 _063_
*229 _064_
*230 _065_
*231 _066_
*232 _067_
*233 _068_
*234 _069_
*235 _070_
*236 _071_
*237 _072_
*238 _073_
*239 _074_
*240 _075_
*241 _076_
*242 _077_
*243 _078_
*244 _079_
*245 _080_
*246 _081_
*247 _082_
*248 _083_
*249 _084_
*250 _085_
*251 _086_
*252 _087_
*253 _088_
*254 _089_
*255 _090_
*256 _091_
*257 _092_
*258 _093_
*259 _094_
*260 _095_
*261 _096_
*262 _097_
*263 _098_
*264 _099_
*265 _100_
*266 _101_
*267 _102_
*268 _103_
*269 _104_
*270 _105_
*271 _106_
*272 _107_
*273 _108_
*274 _109_
*275 _110_
*276 _111_
*277 _112_
*278 _113_
*279 _114_
*280 _115_
*281 _116_
*282 _117_
*283 _118_
*284 _119_
*285 _120_
*286 _121_
*287 _122_
*288 _123_
*289 _124_
*290 _125_
*291 _126_
*292 _127_
*293 _128_
*294 _129_
*295 _130_
*296 _131_
*297 _132_
*298 _133_
*299 _134_
*300 _135_
*301 _136_
*302 _137_
*303 _138_
*304 _139_
*305 _140_
*306 _141_
*307 _142_
*308 _143_
*309 _144_
*310 _145_
*311 _146_
*312 _147_
*313 _148_
*314 _149_
*315 _150_
*316 _151_
*317 _152_
*318 _153_
*319 _154_
*320 _155_
*321 _156_
*322 _157_
*323 _158_
*324 _159_
*325 _160_
*326 _161_
*327 _162_
*328 _163_
*329 _164_
*330 _165_
*331 _166_
*332 _167_
*333 _168_
*334 _169_
*335 _170_
*336 _171_
*337 _172_
*338 _173_
*339 _174_
*340 _175_
*341 _176_
*342 _177_
*343 _178_
*344 _179_
*345 _180_
*346 _181_
*347 _182_
*348 _183_
*349 _184_
*350 _185_
*351 _186_
*352 _187_
*353 _188_
*354 _189_
*355 _190_
*356 _191_
*357 _192_
*358 _193_
*359 _194_
*360 _195_
*361 _196_
*362 _197_
*363 _198_
*364 _199_
*365 _200_
*366 _201_
*367 _202_
*368 _203_
*369 _204_
*370 _205_
*371 _206_
*372 _207_
*373 _208_
*374 _209_
*375 _210_
*376 _211_
*377 _212_
*378 _213_
*379 _214_
*380 _215_
*381 _216_
*382 _217_
*383 _218_
*384 _219_
*385 _220_
*386 clknet_0_clk
*387 clknet_2_0__leaf_clk
*388 clknet_2_1__leaf_clk
*389 clknet_2_2__leaf_clk
*390 clknet_2_3__leaf_clk
*391 master\.BVALID
*392 master\.RVALID
*393 master\.state\[0\]
*394 master\.state\[1\]
*395 master\.state\[2\]
*396 net1
*397 net10
*398 net11
*399 net12
*400 net13
*401 net14
*402 net15
*403 net16
*404 net168
*405 net169
*406 net17
*407 net170
*408 net171
*409 net172
*410 net173
*411 net174
*412 net175
*413 net176
*414 net177
*415 net178
*416 net179
*417 net18
*418 net180
*419 net19
*420 net2
*421 net20
*422 net21
*423 net22
*424 net23
*425 net24
*426 net25
*427 net26
*428 net27
*429 net28
*430 net29
*431 net3
*432 net30
*433 net31
*434 net32
*435 net33
*436 net34
*437 net35
*438 net36
*439 net37
*440 net4
*441 net5
*442 net6
*443 net7
*444 net8
*445 net9
*446 slave\.read_delay_cnt\[0\]
*447 slave\.read_delay_cnt\[1\]
*448 slave\.write_delay_cnt\[0\]
*449 slave\.write_delay_cnt\[1\]
*450 ANTENNA_1
*451 ANTENNA_10
*452 ANTENNA_11
*453 ANTENNA_12
*454 ANTENNA_13
*455 ANTENNA_14
*456 ANTENNA_15
*457 ANTENNA_16
*458 ANTENNA_17
*459 ANTENNA_18
*460 ANTENNA_19
*461 ANTENNA_2
*462 ANTENNA_20
*463 ANTENNA_21
*464 ANTENNA_3
*465 ANTENNA_4
*466 ANTENNA_5
*467 ANTENNA_6
*468 ANTENNA_7
*469 ANTENNA_8
*470 ANTENNA_9
*471 FILLER_0_0_1005
*472 FILLER_0_0_1009
*473 FILLER_0_0_1021
*474 FILLER_0_0_1033
*475 FILLER_0_0_1037
*476 FILLER_0_0_1049
*477 FILLER_0_0_1061
*478 FILLER_0_0_1065
*479 FILLER_0_0_1077
*480 FILLER_0_0_1089
*481 FILLER_0_0_109
*482 FILLER_0_0_1093
*483 FILLER_0_0_1105
*484 FILLER_0_0_1117
*485 FILLER_0_0_1121
*486 FILLER_0_0_113
*487 FILLER_0_0_1133
*488 FILLER_0_0_1145
*489 FILLER_0_0_1149
*490 FILLER_0_0_1161
*491 FILLER_0_0_1173
*492 FILLER_0_0_1177
*493 FILLER_0_0_1189
*494 FILLER_0_0_1201
*495 FILLER_0_0_1205
*496 FILLER_0_0_1217
*497 FILLER_0_0_1229
*498 FILLER_0_0_1233
*499 FILLER_0_0_1245
*500 FILLER_0_0_125
*501 FILLER_0_0_1257
*502 FILLER_0_0_1261
*503 FILLER_0_0_1273
*504 FILLER_0_0_1285
*505 FILLER_0_0_1289
*506 FILLER_0_0_1301
*507 FILLER_0_0_1313
*508 FILLER_0_0_1317
*509 FILLER_0_0_1329
*510 FILLER_0_0_1341
*511 FILLER_0_0_1345
*512 FILLER_0_0_1357
*513 FILLER_0_0_1369
*514 FILLER_0_0_137
*515 FILLER_0_0_1373
*516 FILLER_0_0_1385
*517 FILLER_0_0_1397
*518 FILLER_0_0_1401
*519 FILLER_0_0_141
*520 FILLER_0_0_1413
*521 FILLER_0_0_1425
*522 FILLER_0_0_1429
*523 FILLER_0_0_1441
*524 FILLER_0_0_1453
*525 FILLER_0_0_1457
*526 FILLER_0_0_1469
*527 FILLER_0_0_1481
*528 FILLER_0_0_1485
*529 FILLER_0_0_1497
*530 FILLER_0_0_15
*531 FILLER_0_0_1509
*532 FILLER_0_0_1513
*533 FILLER_0_0_1525
*534 FILLER_0_0_153
*535 FILLER_0_0_1537
*536 FILLER_0_0_1541
*537 FILLER_0_0_1553
*538 FILLER_0_0_1565
*539 FILLER_0_0_1569
*540 FILLER_0_0_1581
*541 FILLER_0_0_1593
*542 FILLER_0_0_1597
*543 FILLER_0_0_1609
*544 FILLER_0_0_1621
*545 FILLER_0_0_1625
*546 FILLER_0_0_1637
*547 FILLER_0_0_1649
*548 FILLER_0_0_165
*549 FILLER_0_0_1653
*550 FILLER_0_0_1665
*551 FILLER_0_0_1677
*552 FILLER_0_0_1681
*553 FILLER_0_0_169
*554 FILLER_0_0_1693
*555 FILLER_0_0_1705
*556 FILLER_0_0_1709
*557 FILLER_0_0_1721
*558 FILLER_0_0_1733
*559 FILLER_0_0_1737
*560 FILLER_0_0_1749
*561 FILLER_0_0_1761
*562 FILLER_0_0_1765
*563 FILLER_0_0_1777
*564 FILLER_0_0_1789
*565 FILLER_0_0_1793
*566 FILLER_0_0_1805
*567 FILLER_0_0_181
*568 FILLER_0_0_1817
*569 FILLER_0_0_1821
*570 FILLER_0_0_1833
*571 FILLER_0_0_1845
*572 FILLER_0_0_1849
*573 FILLER_0_0_1861
*574 FILLER_0_0_1873
*575 FILLER_0_0_1877
*576 FILLER_0_0_1889
*577 FILLER_0_0_1901
*578 FILLER_0_0_1905
*579 FILLER_0_0_1917
*580 FILLER_0_0_193
*581 FILLER_0_0_197
*582 FILLER_0_0_209
*583 FILLER_0_0_221
*584 FILLER_0_0_225
*585 FILLER_0_0_237
*586 FILLER_0_0_249
*587 FILLER_0_0_253
*588 FILLER_0_0_265
*589 FILLER_0_0_27
*590 FILLER_0_0_277
*591 FILLER_0_0_281
*592 FILLER_0_0_29
*593 FILLER_0_0_293
*594 FILLER_0_0_3
*595 FILLER_0_0_305
*596 FILLER_0_0_309
*597 FILLER_0_0_321
*598 FILLER_0_0_333
*599 FILLER_0_0_337
*600 FILLER_0_0_349
*601 FILLER_0_0_361
*602 FILLER_0_0_365
*603 FILLER_0_0_377
*604 FILLER_0_0_389
*605 FILLER_0_0_393
*606 FILLER_0_0_405
*607 FILLER_0_0_41
*608 FILLER_0_0_417
*609 FILLER_0_0_421
*610 FILLER_0_0_433
*611 FILLER_0_0_445
*612 FILLER_0_0_449
*613 FILLER_0_0_461
*614 FILLER_0_0_473
*615 FILLER_0_0_477
*616 FILLER_0_0_489
*617 FILLER_0_0_501
*618 FILLER_0_0_505
*619 FILLER_0_0_517
*620 FILLER_0_0_529
*621 FILLER_0_0_53
*622 FILLER_0_0_533
*623 FILLER_0_0_545
*624 FILLER_0_0_557
*625 FILLER_0_0_561
*626 FILLER_0_0_57
*627 FILLER_0_0_573
*628 FILLER_0_0_585
*629 FILLER_0_0_589
*630 FILLER_0_0_601
*631 FILLER_0_0_613
*632 FILLER_0_0_617
*633 FILLER_0_0_629
*634 FILLER_0_0_641
*635 FILLER_0_0_645
*636 FILLER_0_0_657
*637 FILLER_0_0_669
*638 FILLER_0_0_673
*639 FILLER_0_0_685
*640 FILLER_0_0_69
*641 FILLER_0_0_697
*642 FILLER_0_0_701
*643 FILLER_0_0_713
*644 FILLER_0_0_725
*645 FILLER_0_0_729
*646 FILLER_0_0_734
*647 FILLER_0_0_742
*648 FILLER_0_0_748
*649 FILLER_0_0_755
*650 FILLER_0_0_757
*651 FILLER_0_0_762
*652 FILLER_0_0_769
*653 FILLER_0_0_776
*654 FILLER_0_0_783
*655 FILLER_0_0_785
*656 FILLER_0_0_790
*657 FILLER_0_0_797
*658 FILLER_0_0_804
*659 FILLER_0_0_81
*660 FILLER_0_0_811
*661 FILLER_0_0_813
*662 FILLER_0_0_818
*663 FILLER_0_0_825
*664 FILLER_0_0_832
*665 FILLER_0_0_839
*666 FILLER_0_0_841
*667 FILLER_0_0_846
*668 FILLER_0_0_85
*669 FILLER_0_0_853
*670 FILLER_0_0_860
*671 FILLER_0_0_867
*672 FILLER_0_0_869
*673 FILLER_0_0_874
*674 FILLER_0_0_886
*675 FILLER_0_0_895
*676 FILLER_0_0_897
*677 FILLER_0_0_902
*678 FILLER_0_0_909
*679 FILLER_0_0_916
*680 FILLER_0_0_923
*681 FILLER_0_0_925
*682 FILLER_0_0_931
*683 FILLER_0_0_937
*684 FILLER_0_0_944
*685 FILLER_0_0_953
*686 FILLER_0_0_959
*687 FILLER_0_0_965
*688 FILLER_0_0_97
*689 FILLER_0_0_973
*690 FILLER_0_0_979
*691 FILLER_0_0_981
*692 FILLER_0_0_993
*693 FILLER_0_100_1005
*694 FILLER_0_100_1017
*695 FILLER_0_100_1029
*696 FILLER_0_100_1035
*697 FILLER_0_100_1037
*698 FILLER_0_100_1049
*699 FILLER_0_100_1061
*700 FILLER_0_100_1073
*701 FILLER_0_100_1085
*702 FILLER_0_100_109
*703 FILLER_0_100_1091
*704 FILLER_0_100_1093
*705 FILLER_0_100_1105
*706 FILLER_0_100_1117
*707 FILLER_0_100_1129
*708 FILLER_0_100_1141
*709 FILLER_0_100_1147
*710 FILLER_0_100_1149
*711 FILLER_0_100_1161
*712 FILLER_0_100_1173
*713 FILLER_0_100_1185
*714 FILLER_0_100_1197
*715 FILLER_0_100_1203
*716 FILLER_0_100_1205
*717 FILLER_0_100_121
*718 FILLER_0_100_1217
*719 FILLER_0_100_1229
*720 FILLER_0_100_1241
*721 FILLER_0_100_1253
*722 FILLER_0_100_1259
*723 FILLER_0_100_1261
*724 FILLER_0_100_1273
*725 FILLER_0_100_1285
*726 FILLER_0_100_1297
*727 FILLER_0_100_1309
*728 FILLER_0_100_1315
*729 FILLER_0_100_1317
*730 FILLER_0_100_1329
*731 FILLER_0_100_133
*732 FILLER_0_100_1341
*733 FILLER_0_100_1353
*734 FILLER_0_100_1365
*735 FILLER_0_100_1371
*736 FILLER_0_100_1373
*737 FILLER_0_100_1385
*738 FILLER_0_100_139
*739 FILLER_0_100_1397
*740 FILLER_0_100_1409
*741 FILLER_0_100_141
*742 FILLER_0_100_1421
*743 FILLER_0_100_1427
*744 FILLER_0_100_1429
*745 FILLER_0_100_1441
*746 FILLER_0_100_1453
*747 FILLER_0_100_1465
*748 FILLER_0_100_1477
*749 FILLER_0_100_1483
*750 FILLER_0_100_1485
*751 FILLER_0_100_1497
*752 FILLER_0_100_15
*753 FILLER_0_100_1509
*754 FILLER_0_100_1521
*755 FILLER_0_100_153
*756 FILLER_0_100_1533
*757 FILLER_0_100_1539
*758 FILLER_0_100_1541
*759 FILLER_0_100_1553
*760 FILLER_0_100_1565
*761 FILLER_0_100_1577
*762 FILLER_0_100_1589
*763 FILLER_0_100_1595
*764 FILLER_0_100_1597
*765 FILLER_0_100_1609
*766 FILLER_0_100_1621
*767 FILLER_0_100_1633
*768 FILLER_0_100_1645
*769 FILLER_0_100_165
*770 FILLER_0_100_1651
*771 FILLER_0_100_1653
*772 FILLER_0_100_1665
*773 FILLER_0_100_1677
*774 FILLER_0_100_1689
*775 FILLER_0_100_1701
*776 FILLER_0_100_1707
*777 FILLER_0_100_1709
*778 FILLER_0_100_1721
*779 FILLER_0_100_1733
*780 FILLER_0_100_1745
*781 FILLER_0_100_1757
*782 FILLER_0_100_1763
*783 FILLER_0_100_1765
*784 FILLER_0_100_177
*785 FILLER_0_100_1777
*786 FILLER_0_100_1789
*787 FILLER_0_100_1801
*788 FILLER_0_100_1813
*789 FILLER_0_100_1819
*790 FILLER_0_100_1821
*791 FILLER_0_100_1833
*792 FILLER_0_100_1845
*793 FILLER_0_100_1857
*794 FILLER_0_100_1869
*795 FILLER_0_100_1875
*796 FILLER_0_100_1877
*797 FILLER_0_100_1889
*798 FILLER_0_100_189
*799 FILLER_0_100_1901
*800 FILLER_0_100_1913
*801 FILLER_0_100_1925
*802 FILLER_0_100_195
*803 FILLER_0_100_197
*804 FILLER_0_100_209
*805 FILLER_0_100_221
*806 FILLER_0_100_233
*807 FILLER_0_100_245
*808 FILLER_0_100_251
*809 FILLER_0_100_253
*810 FILLER_0_100_265
*811 FILLER_0_100_27
*812 FILLER_0_100_277
*813 FILLER_0_100_289
*814 FILLER_0_100_29
*815 FILLER_0_100_3
*816 FILLER_0_100_301
*817 FILLER_0_100_307
*818 FILLER_0_100_309
*819 FILLER_0_100_321
*820 FILLER_0_100_333
*821 FILLER_0_100_345
*822 FILLER_0_100_357
*823 FILLER_0_100_363
*824 FILLER_0_100_365
*825 FILLER_0_100_377
*826 FILLER_0_100_389
*827 FILLER_0_100_401
*828 FILLER_0_100_41
*829 FILLER_0_100_413
*830 FILLER_0_100_419
*831 FILLER_0_100_421
*832 FILLER_0_100_433
*833 FILLER_0_100_445
*834 FILLER_0_100_457
*835 FILLER_0_100_469
*836 FILLER_0_100_475
*837 FILLER_0_100_477
*838 FILLER_0_100_489
*839 FILLER_0_100_501
*840 FILLER_0_100_513
*841 FILLER_0_100_525
*842 FILLER_0_100_53
*843 FILLER_0_100_531
*844 FILLER_0_100_533
*845 FILLER_0_100_545
*846 FILLER_0_100_557
*847 FILLER_0_100_569
*848 FILLER_0_100_581
*849 FILLER_0_100_587
*850 FILLER_0_100_589
*851 FILLER_0_100_601
*852 FILLER_0_100_613
*853 FILLER_0_100_625
*854 FILLER_0_100_637
*855 FILLER_0_100_643
*856 FILLER_0_100_645
*857 FILLER_0_100_65
*858 FILLER_0_100_657
*859 FILLER_0_100_669
*860 FILLER_0_100_681
*861 FILLER_0_100_693
*862 FILLER_0_100_699
*863 FILLER_0_100_701
*864 FILLER_0_100_713
*865 FILLER_0_100_725
*866 FILLER_0_100_737
*867 FILLER_0_100_749
*868 FILLER_0_100_755
*869 FILLER_0_100_757
*870 FILLER_0_100_769
*871 FILLER_0_100_77
*872 FILLER_0_100_781
*873 FILLER_0_100_793
*874 FILLER_0_100_805
*875 FILLER_0_100_811
*876 FILLER_0_100_813
*877 FILLER_0_100_825
*878 FILLER_0_100_83
*879 FILLER_0_100_837
*880 FILLER_0_100_849
*881 FILLER_0_100_85
*882 FILLER_0_100_861
*883 FILLER_0_100_867
*884 FILLER_0_100_869
*885 FILLER_0_100_881
*886 FILLER_0_100_893
*887 FILLER_0_100_905
*888 FILLER_0_100_917
*889 FILLER_0_100_923
*890 FILLER_0_100_925
*891 FILLER_0_100_937
*892 FILLER_0_100_949
*893 FILLER_0_100_961
*894 FILLER_0_100_97
*895 FILLER_0_100_973
*896 FILLER_0_100_979
*897 FILLER_0_100_981
*898 FILLER_0_100_993
*899 FILLER_0_101_1001
*900 FILLER_0_101_1007
*901 FILLER_0_101_1009
*902 FILLER_0_101_1021
*903 FILLER_0_101_1033
*904 FILLER_0_101_1045
*905 FILLER_0_101_105
*906 FILLER_0_101_1057
*907 FILLER_0_101_1063
*908 FILLER_0_101_1065
*909 FILLER_0_101_1077
*910 FILLER_0_101_1089
*911 FILLER_0_101_1101
*912 FILLER_0_101_111
*913 FILLER_0_101_1113
*914 FILLER_0_101_1119
*915 FILLER_0_101_1121
*916 FILLER_0_101_113
*917 FILLER_0_101_1133
*918 FILLER_0_101_1145
*919 FILLER_0_101_1157
*920 FILLER_0_101_1169
*921 FILLER_0_101_1175
*922 FILLER_0_101_1177
*923 FILLER_0_101_1189
*924 FILLER_0_101_1201
*925 FILLER_0_101_1213
*926 FILLER_0_101_1225
*927 FILLER_0_101_1231
*928 FILLER_0_101_1233
*929 FILLER_0_101_1245
*930 FILLER_0_101_125
*931 FILLER_0_101_1257
*932 FILLER_0_101_1269
*933 FILLER_0_101_1281
*934 FILLER_0_101_1287
*935 FILLER_0_101_1289
*936 FILLER_0_101_1301
*937 FILLER_0_101_1313
*938 FILLER_0_101_1325
*939 FILLER_0_101_1337
*940 FILLER_0_101_1343
*941 FILLER_0_101_1345
*942 FILLER_0_101_1357
*943 FILLER_0_101_1369
*944 FILLER_0_101_137
*945 FILLER_0_101_1381
*946 FILLER_0_101_1393
*947 FILLER_0_101_1399
*948 FILLER_0_101_1401
*949 FILLER_0_101_1413
*950 FILLER_0_101_1425
*951 FILLER_0_101_1437
*952 FILLER_0_101_1449
*953 FILLER_0_101_1455
*954 FILLER_0_101_1457
*955 FILLER_0_101_1469
*956 FILLER_0_101_1481
*957 FILLER_0_101_149
*958 FILLER_0_101_1493
*959 FILLER_0_101_15
*960 FILLER_0_101_1505
*961 FILLER_0_101_1511
*962 FILLER_0_101_1513
*963 FILLER_0_101_1525
*964 FILLER_0_101_1537
*965 FILLER_0_101_1549
*966 FILLER_0_101_1561
*967 FILLER_0_101_1567
*968 FILLER_0_101_1569
*969 FILLER_0_101_1581
*970 FILLER_0_101_1593
*971 FILLER_0_101_1605
*972 FILLER_0_101_161
*973 FILLER_0_101_1617
*974 FILLER_0_101_1623
*975 FILLER_0_101_1625
*976 FILLER_0_101_1637
*977 FILLER_0_101_1649
*978 FILLER_0_101_1661
*979 FILLER_0_101_167
*980 FILLER_0_101_1673
*981 FILLER_0_101_1679
*982 FILLER_0_101_1681
*983 FILLER_0_101_169
*984 FILLER_0_101_1693
*985 FILLER_0_101_1705
*986 FILLER_0_101_1717
*987 FILLER_0_101_1729
*988 FILLER_0_101_1735
*989 FILLER_0_101_1737
*990 FILLER_0_101_1749
*991 FILLER_0_101_1761
*992 FILLER_0_101_1773
*993 FILLER_0_101_1785
*994 FILLER_0_101_1791
*995 FILLER_0_101_1793
*996 FILLER_0_101_1805
*997 FILLER_0_101_181
*998 FILLER_0_101_1817
*999 FILLER_0_101_1829
*1000 FILLER_0_101_1841
*1001 FILLER_0_101_1847
*1002 FILLER_0_101_1849
*1003 FILLER_0_101_1861
*1004 FILLER_0_101_1873
*1005 FILLER_0_101_1885
*1006 FILLER_0_101_1897
*1007 FILLER_0_101_1903
*1008 FILLER_0_101_1905
*1009 FILLER_0_101_1917
*1010 FILLER_0_101_193
*1011 FILLER_0_101_205
*1012 FILLER_0_101_217
*1013 FILLER_0_101_223
*1014 FILLER_0_101_225
*1015 FILLER_0_101_237
*1016 FILLER_0_101_249
*1017 FILLER_0_101_261
*1018 FILLER_0_101_27
*1019 FILLER_0_101_273
*1020 FILLER_0_101_279
*1021 FILLER_0_101_281
*1022 FILLER_0_101_293
*1023 FILLER_0_101_3
*1024 FILLER_0_101_305
*1025 FILLER_0_101_317
*1026 FILLER_0_101_329
*1027 FILLER_0_101_335
*1028 FILLER_0_101_337
*1029 FILLER_0_101_349
*1030 FILLER_0_101_361
*1031 FILLER_0_101_373
*1032 FILLER_0_101_385
*1033 FILLER_0_101_39
*1034 FILLER_0_101_391
*1035 FILLER_0_101_393
*1036 FILLER_0_101_405
*1037 FILLER_0_101_417
*1038 FILLER_0_101_429
*1039 FILLER_0_101_441
*1040 FILLER_0_101_447
*1041 FILLER_0_101_449
*1042 FILLER_0_101_461
*1043 FILLER_0_101_473
*1044 FILLER_0_101_485
*1045 FILLER_0_101_497
*1046 FILLER_0_101_503
*1047 FILLER_0_101_505
*1048 FILLER_0_101_51
*1049 FILLER_0_101_517
*1050 FILLER_0_101_529
*1051 FILLER_0_101_541
*1052 FILLER_0_101_55
*1053 FILLER_0_101_553
*1054 FILLER_0_101_559
*1055 FILLER_0_101_561
*1056 FILLER_0_101_57
*1057 FILLER_0_101_573
*1058 FILLER_0_101_585
*1059 FILLER_0_101_597
*1060 FILLER_0_101_609
*1061 FILLER_0_101_615
*1062 FILLER_0_101_617
*1063 FILLER_0_101_629
*1064 FILLER_0_101_641
*1065 FILLER_0_101_653
*1066 FILLER_0_101_665
*1067 FILLER_0_101_671
*1068 FILLER_0_101_673
*1069 FILLER_0_101_685
*1070 FILLER_0_101_69
*1071 FILLER_0_101_697
*1072 FILLER_0_101_709
*1073 FILLER_0_101_721
*1074 FILLER_0_101_727
*1075 FILLER_0_101_729
*1076 FILLER_0_101_741
*1077 FILLER_0_101_753
*1078 FILLER_0_101_765
*1079 FILLER_0_101_777
*1080 FILLER_0_101_783
*1081 FILLER_0_101_785
*1082 FILLER_0_101_797
*1083 FILLER_0_101_809
*1084 FILLER_0_101_81
*1085 FILLER_0_101_821
*1086 FILLER_0_101_833
*1087 FILLER_0_101_839
*1088 FILLER_0_101_841
*1089 FILLER_0_101_853
*1090 FILLER_0_101_865
*1091 FILLER_0_101_877
*1092 FILLER_0_101_889
*1093 FILLER_0_101_895
*1094 FILLER_0_101_897
*1095 FILLER_0_101_909
*1096 FILLER_0_101_921
*1097 FILLER_0_101_93
*1098 FILLER_0_101_933
*1099 FILLER_0_101_945
*1100 FILLER_0_101_951
*1101 FILLER_0_101_953
*1102 FILLER_0_101_965
*1103 FILLER_0_101_977
*1104 FILLER_0_101_989
*1105 FILLER_0_102_1005
*1106 FILLER_0_102_1017
*1107 FILLER_0_102_1029
*1108 FILLER_0_102_1035
*1109 FILLER_0_102_1037
*1110 FILLER_0_102_1049
*1111 FILLER_0_102_1061
*1112 FILLER_0_102_1073
*1113 FILLER_0_102_1085
*1114 FILLER_0_102_109
*1115 FILLER_0_102_1091
*1116 FILLER_0_102_1093
*1117 FILLER_0_102_1105
*1118 FILLER_0_102_1117
*1119 FILLER_0_102_1129
*1120 FILLER_0_102_1141
*1121 FILLER_0_102_1147
*1122 FILLER_0_102_1149
*1123 FILLER_0_102_1161
*1124 FILLER_0_102_1173
*1125 FILLER_0_102_1185
*1126 FILLER_0_102_1197
*1127 FILLER_0_102_1203
*1128 FILLER_0_102_1205
*1129 FILLER_0_102_121
*1130 FILLER_0_102_1217
*1131 FILLER_0_102_1229
*1132 FILLER_0_102_1241
*1133 FILLER_0_102_1253
*1134 FILLER_0_102_1259
*1135 FILLER_0_102_1261
*1136 FILLER_0_102_1273
*1137 FILLER_0_102_1285
*1138 FILLER_0_102_1297
*1139 FILLER_0_102_1309
*1140 FILLER_0_102_1315
*1141 FILLER_0_102_1317
*1142 FILLER_0_102_1329
*1143 FILLER_0_102_133
*1144 FILLER_0_102_1341
*1145 FILLER_0_102_1353
*1146 FILLER_0_102_1365
*1147 FILLER_0_102_1371
*1148 FILLER_0_102_1373
*1149 FILLER_0_102_1385
*1150 FILLER_0_102_139
*1151 FILLER_0_102_1397
*1152 FILLER_0_102_1409
*1153 FILLER_0_102_141
*1154 FILLER_0_102_1421
*1155 FILLER_0_102_1427
*1156 FILLER_0_102_1429
*1157 FILLER_0_102_1441
*1158 FILLER_0_102_1453
*1159 FILLER_0_102_1465
*1160 FILLER_0_102_1477
*1161 FILLER_0_102_1483
*1162 FILLER_0_102_1485
*1163 FILLER_0_102_1497
*1164 FILLER_0_102_15
*1165 FILLER_0_102_1509
*1166 FILLER_0_102_1521
*1167 FILLER_0_102_153
*1168 FILLER_0_102_1533
*1169 FILLER_0_102_1539
*1170 FILLER_0_102_1541
*1171 FILLER_0_102_1553
*1172 FILLER_0_102_1565
*1173 FILLER_0_102_1577
*1174 FILLER_0_102_1589
*1175 FILLER_0_102_1595
*1176 FILLER_0_102_1597
*1177 FILLER_0_102_1609
*1178 FILLER_0_102_1621
*1179 FILLER_0_102_1633
*1180 FILLER_0_102_1645
*1181 FILLER_0_102_165
*1182 FILLER_0_102_1651
*1183 FILLER_0_102_1653
*1184 FILLER_0_102_1665
*1185 FILLER_0_102_1677
*1186 FILLER_0_102_1689
*1187 FILLER_0_102_1701
*1188 FILLER_0_102_1707
*1189 FILLER_0_102_1709
*1190 FILLER_0_102_1721
*1191 FILLER_0_102_1733
*1192 FILLER_0_102_1745
*1193 FILLER_0_102_1757
*1194 FILLER_0_102_1763
*1195 FILLER_0_102_1765
*1196 FILLER_0_102_177
*1197 FILLER_0_102_1777
*1198 FILLER_0_102_1789
*1199 FILLER_0_102_1801
*1200 FILLER_0_102_1813
*1201 FILLER_0_102_1819
*1202 FILLER_0_102_1821
*1203 FILLER_0_102_1833
*1204 FILLER_0_102_1845
*1205 FILLER_0_102_1857
*1206 FILLER_0_102_1869
*1207 FILLER_0_102_1875
*1208 FILLER_0_102_1877
*1209 FILLER_0_102_1889
*1210 FILLER_0_102_189
*1211 FILLER_0_102_1901
*1212 FILLER_0_102_1913
*1213 FILLER_0_102_1925
*1214 FILLER_0_102_195
*1215 FILLER_0_102_197
*1216 FILLER_0_102_209
*1217 FILLER_0_102_221
*1218 FILLER_0_102_233
*1219 FILLER_0_102_245
*1220 FILLER_0_102_251
*1221 FILLER_0_102_253
*1222 FILLER_0_102_265
*1223 FILLER_0_102_27
*1224 FILLER_0_102_277
*1225 FILLER_0_102_289
*1226 FILLER_0_102_29
*1227 FILLER_0_102_3
*1228 FILLER_0_102_301
*1229 FILLER_0_102_307
*1230 FILLER_0_102_309
*1231 FILLER_0_102_321
*1232 FILLER_0_102_333
*1233 FILLER_0_102_345
*1234 FILLER_0_102_357
*1235 FILLER_0_102_363
*1236 FILLER_0_102_365
*1237 FILLER_0_102_377
*1238 FILLER_0_102_389
*1239 FILLER_0_102_401
*1240 FILLER_0_102_41
*1241 FILLER_0_102_413
*1242 FILLER_0_102_419
*1243 FILLER_0_102_421
*1244 FILLER_0_102_433
*1245 FILLER_0_102_445
*1246 FILLER_0_102_457
*1247 FILLER_0_102_469
*1248 FILLER_0_102_475
*1249 FILLER_0_102_477
*1250 FILLER_0_102_489
*1251 FILLER_0_102_501
*1252 FILLER_0_102_513
*1253 FILLER_0_102_525
*1254 FILLER_0_102_53
*1255 FILLER_0_102_531
*1256 FILLER_0_102_533
*1257 FILLER_0_102_545
*1258 FILLER_0_102_557
*1259 FILLER_0_102_569
*1260 FILLER_0_102_581
*1261 FILLER_0_102_587
*1262 FILLER_0_102_589
*1263 FILLER_0_102_601
*1264 FILLER_0_102_613
*1265 FILLER_0_102_625
*1266 FILLER_0_102_637
*1267 FILLER_0_102_643
*1268 FILLER_0_102_645
*1269 FILLER_0_102_65
*1270 FILLER_0_102_657
*1271 FILLER_0_102_669
*1272 FILLER_0_102_681
*1273 FILLER_0_102_693
*1274 FILLER_0_102_699
*1275 FILLER_0_102_701
*1276 FILLER_0_102_713
*1277 FILLER_0_102_725
*1278 FILLER_0_102_737
*1279 FILLER_0_102_749
*1280 FILLER_0_102_755
*1281 FILLER_0_102_757
*1282 FILLER_0_102_769
*1283 FILLER_0_102_77
*1284 FILLER_0_102_781
*1285 FILLER_0_102_793
*1286 FILLER_0_102_805
*1287 FILLER_0_102_811
*1288 FILLER_0_102_813
*1289 FILLER_0_102_825
*1290 FILLER_0_102_83
*1291 FILLER_0_102_837
*1292 FILLER_0_102_849
*1293 FILLER_0_102_85
*1294 FILLER_0_102_861
*1295 FILLER_0_102_867
*1296 FILLER_0_102_869
*1297 FILLER_0_102_881
*1298 FILLER_0_102_893
*1299 FILLER_0_102_905
*1300 FILLER_0_102_917
*1301 FILLER_0_102_923
*1302 FILLER_0_102_925
*1303 FILLER_0_102_937
*1304 FILLER_0_102_949
*1305 FILLER_0_102_961
*1306 FILLER_0_102_97
*1307 FILLER_0_102_973
*1308 FILLER_0_102_979
*1309 FILLER_0_102_981
*1310 FILLER_0_102_993
*1311 FILLER_0_103_1001
*1312 FILLER_0_103_1007
*1313 FILLER_0_103_1009
*1314 FILLER_0_103_1021
*1315 FILLER_0_103_1033
*1316 FILLER_0_103_1045
*1317 FILLER_0_103_105
*1318 FILLER_0_103_1057
*1319 FILLER_0_103_1063
*1320 FILLER_0_103_1065
*1321 FILLER_0_103_1077
*1322 FILLER_0_103_1089
*1323 FILLER_0_103_1101
*1324 FILLER_0_103_111
*1325 FILLER_0_103_1113
*1326 FILLER_0_103_1119
*1327 FILLER_0_103_1121
*1328 FILLER_0_103_113
*1329 FILLER_0_103_1133
*1330 FILLER_0_103_1145
*1331 FILLER_0_103_1157
*1332 FILLER_0_103_1169
*1333 FILLER_0_103_1175
*1334 FILLER_0_103_1177
*1335 FILLER_0_103_1189
*1336 FILLER_0_103_1201
*1337 FILLER_0_103_1213
*1338 FILLER_0_103_1225
*1339 FILLER_0_103_1231
*1340 FILLER_0_103_1233
*1341 FILLER_0_103_1245
*1342 FILLER_0_103_125
*1343 FILLER_0_103_1257
*1344 FILLER_0_103_1269
*1345 FILLER_0_103_1281
*1346 FILLER_0_103_1287
*1347 FILLER_0_103_1289
*1348 FILLER_0_103_1301
*1349 FILLER_0_103_1313
*1350 FILLER_0_103_1325
*1351 FILLER_0_103_1337
*1352 FILLER_0_103_1343
*1353 FILLER_0_103_1345
*1354 FILLER_0_103_1357
*1355 FILLER_0_103_1369
*1356 FILLER_0_103_137
*1357 FILLER_0_103_1381
*1358 FILLER_0_103_1393
*1359 FILLER_0_103_1399
*1360 FILLER_0_103_1401
*1361 FILLER_0_103_1413
*1362 FILLER_0_103_1425
*1363 FILLER_0_103_1437
*1364 FILLER_0_103_1449
*1365 FILLER_0_103_1455
*1366 FILLER_0_103_1457
*1367 FILLER_0_103_1469
*1368 FILLER_0_103_1481
*1369 FILLER_0_103_149
*1370 FILLER_0_103_1493
*1371 FILLER_0_103_15
*1372 FILLER_0_103_1505
*1373 FILLER_0_103_1511
*1374 FILLER_0_103_1513
*1375 FILLER_0_103_1525
*1376 FILLER_0_103_1537
*1377 FILLER_0_103_1549
*1378 FILLER_0_103_1561
*1379 FILLER_0_103_1567
*1380 FILLER_0_103_1569
*1381 FILLER_0_103_1581
*1382 FILLER_0_103_1593
*1383 FILLER_0_103_1605
*1384 FILLER_0_103_161
*1385 FILLER_0_103_1617
*1386 FILLER_0_103_1623
*1387 FILLER_0_103_1625
*1388 FILLER_0_103_1637
*1389 FILLER_0_103_1649
*1390 FILLER_0_103_1661
*1391 FILLER_0_103_167
*1392 FILLER_0_103_1673
*1393 FILLER_0_103_1679
*1394 FILLER_0_103_1681
*1395 FILLER_0_103_169
*1396 FILLER_0_103_1693
*1397 FILLER_0_103_1705
*1398 FILLER_0_103_1717
*1399 FILLER_0_103_1729
*1400 FILLER_0_103_1735
*1401 FILLER_0_103_1737
*1402 FILLER_0_103_1749
*1403 FILLER_0_103_1761
*1404 FILLER_0_103_1773
*1405 FILLER_0_103_1785
*1406 FILLER_0_103_1791
*1407 FILLER_0_103_1793
*1408 FILLER_0_103_1805
*1409 FILLER_0_103_181
*1410 FILLER_0_103_1817
*1411 FILLER_0_103_1829
*1412 FILLER_0_103_1841
*1413 FILLER_0_103_1847
*1414 FILLER_0_103_1849
*1415 FILLER_0_103_1861
*1416 FILLER_0_103_1873
*1417 FILLER_0_103_1885
*1418 FILLER_0_103_1897
*1419 FILLER_0_103_1903
*1420 FILLER_0_103_1905
*1421 FILLER_0_103_1917
*1422 FILLER_0_103_193
*1423 FILLER_0_103_205
*1424 FILLER_0_103_217
*1425 FILLER_0_103_223
*1426 FILLER_0_103_225
*1427 FILLER_0_103_237
*1428 FILLER_0_103_249
*1429 FILLER_0_103_261
*1430 FILLER_0_103_27
*1431 FILLER_0_103_273
*1432 FILLER_0_103_279
*1433 FILLER_0_103_281
*1434 FILLER_0_103_293
*1435 FILLER_0_103_3
*1436 FILLER_0_103_305
*1437 FILLER_0_103_317
*1438 FILLER_0_103_329
*1439 FILLER_0_103_335
*1440 FILLER_0_103_337
*1441 FILLER_0_103_349
*1442 FILLER_0_103_361
*1443 FILLER_0_103_373
*1444 FILLER_0_103_385
*1445 FILLER_0_103_39
*1446 FILLER_0_103_391
*1447 FILLER_0_103_393
*1448 FILLER_0_103_405
*1449 FILLER_0_103_417
*1450 FILLER_0_103_429
*1451 FILLER_0_103_441
*1452 FILLER_0_103_447
*1453 FILLER_0_103_449
*1454 FILLER_0_103_461
*1455 FILLER_0_103_473
*1456 FILLER_0_103_485
*1457 FILLER_0_103_497
*1458 FILLER_0_103_503
*1459 FILLER_0_103_505
*1460 FILLER_0_103_51
*1461 FILLER_0_103_517
*1462 FILLER_0_103_529
*1463 FILLER_0_103_541
*1464 FILLER_0_103_55
*1465 FILLER_0_103_553
*1466 FILLER_0_103_559
*1467 FILLER_0_103_561
*1468 FILLER_0_103_57
*1469 FILLER_0_103_573
*1470 FILLER_0_103_585
*1471 FILLER_0_103_597
*1472 FILLER_0_103_609
*1473 FILLER_0_103_615
*1474 FILLER_0_103_617
*1475 FILLER_0_103_629
*1476 FILLER_0_103_641
*1477 FILLER_0_103_653
*1478 FILLER_0_103_665
*1479 FILLER_0_103_671
*1480 FILLER_0_103_673
*1481 FILLER_0_103_685
*1482 FILLER_0_103_69
*1483 FILLER_0_103_697
*1484 FILLER_0_103_709
*1485 FILLER_0_103_721
*1486 FILLER_0_103_727
*1487 FILLER_0_103_729
*1488 FILLER_0_103_741
*1489 FILLER_0_103_753
*1490 FILLER_0_103_765
*1491 FILLER_0_103_777
*1492 FILLER_0_103_783
*1493 FILLER_0_103_785
*1494 FILLER_0_103_797
*1495 FILLER_0_103_809
*1496 FILLER_0_103_81
*1497 FILLER_0_103_821
*1498 FILLER_0_103_833
*1499 FILLER_0_103_839
*1500 FILLER_0_103_841
*1501 FILLER_0_103_853
*1502 FILLER_0_103_865
*1503 FILLER_0_103_877
*1504 FILLER_0_103_889
*1505 FILLER_0_103_895
*1506 FILLER_0_103_897
*1507 FILLER_0_103_909
*1508 FILLER_0_103_921
*1509 FILLER_0_103_93
*1510 FILLER_0_103_933
*1511 FILLER_0_103_945
*1512 FILLER_0_103_951
*1513 FILLER_0_103_953
*1514 FILLER_0_103_965
*1515 FILLER_0_103_977
*1516 FILLER_0_103_989
*1517 FILLER_0_104_1005
*1518 FILLER_0_104_1017
*1519 FILLER_0_104_1029
*1520 FILLER_0_104_1035
*1521 FILLER_0_104_1037
*1522 FILLER_0_104_1049
*1523 FILLER_0_104_1061
*1524 FILLER_0_104_1073
*1525 FILLER_0_104_1085
*1526 FILLER_0_104_109
*1527 FILLER_0_104_1091
*1528 FILLER_0_104_1093
*1529 FILLER_0_104_1105
*1530 FILLER_0_104_1117
*1531 FILLER_0_104_1129
*1532 FILLER_0_104_1141
*1533 FILLER_0_104_1147
*1534 FILLER_0_104_1149
*1535 FILLER_0_104_1161
*1536 FILLER_0_104_1173
*1537 FILLER_0_104_1185